[TITLE]
Bill's second attempt at an input file 00.10.11 

[JUNCTIONS]
;ID              	Elev        	Demand      	Pattern         
 J1              	277.85      	0.47        	R               	;
 J2              	283.69      	0.47        	R               	;
 J3              	283.81      	0           	R               	;
 J4              	281.82      	1.15        	F               	;
 J5              	281.63      	0           	R               	;
 J6              	268.59      	2.84        	R               	;
 J7              	282.02      	0.61        	F               	;
 J8              	285.02      	1.42        	R               	;
 J9              	280         	2.84        	R               	;
 J10             	270.89      	1.42        	R               	;
 J11             	267.59      	2           	S               	;
 J12             	265.93      	3.31        	R               	;
 J13             	265.37      	2.36        	R               	;
 J14             	263.67      	1.89        	R               	;
 J15             	260.53      	1.89        	R               	;
 J16             	262.66      	19.37       	R               	;
 J17             	259.46      	12.29       	R               	;
 J18             	260.79      	3.31        	R               	;
 J19             	257.9       	0.95        	R               	;
 J20             	258.79      	1.89        	R               	;
 J21             	256.82      	11.81       	R               	;
 J22             	253.57      	3.78        	R               	;
 J24             	286.95      	0           	R               	;
 J25             	261.39      	2.36        	R               	;
 J26             	270.8       	0.47        	R               	;
 J27             	280.77      	10.87       	R               	;
 J28             	277.12      	3.78        	R               	;
 J29             	278.26      	3.78        	R               	;
 J30             	280.01      	3.78        	R               	;
 J31             	279.82      	6.14        	R               	;
 J32             	277.99      	4.25        	R               	;
 J33             	271.08      	13.7        	R               	;
 J34             	253.27      	0.47        	R               	;
 J35             	249.14      	4.73        	R               	;
 J36             	246.57      	4.73        	R               	;
 J37             	246.49      	0.95        	R               	;
 J38             	245.66      	4.73        	R               	;
 J39             	246.52      	8.03        	R               	;
 J40             	247.45      	4.73        	R               	;
 J41             	247.19      	18.9        	R               	;
 J42             	246.73      	15.59       	R               	;
 J43             	247.55      	7.56        	R               	;
 J44             	246.2       	4.73        	R               	;
 J45             	245.48      	0.47        	R               	;
 J46             	247.79      	3.52        	L               	;
 J47             	249.51      	21.26       	R               	;
 J48             	248.96      	6.62        	R               	;
 J49             	267.06      	0.95        	R               	;
 J50             	266.55      	4.73        	R               	;
 J52             	276.94      	0.95        	R               	;
 J53             	286.85      	1.42        	R               	;
 J54             	257.6       	0.95        	R               	;
 J56             	284.44      	0.47        	R               	;
 J57             	279.34      	0.47        	R               	;
 J58             	271.45      	4.25        	R               	;
 J59             	268.49      	2.36        	R               	;
 J60             	271.51      	4.25        	R               	;
 J61             	261.51      	17.01       	R               	;
 J62             	248.4       	0.47        	R               	;
 J63             	254.02      	2.36        	R               	;
 J64             	261.58      	4.73        	R               	;
 J65             	274.27      	0.47        	R               	;
 J66             	275.14      	3.78        	R               	;
 J67             	266.01      	5.67        	R               	;
 J68             	280.62      	4.25        	R               	;
 J69             	272.96      	0.47        	R               	;
 J70             	270.69      	9.92        	R               	;
 J71             	266.39      	3.31        	R               	;
 J72             	268.22      	4.25        	R               	;
 J73             	259.33      	0.95        	R               	;
 J75             	268.09      	3.31        	R               	;
 J76             	268.16      	5.17        	F               	;
 J77             	266.38      	3.78        	R               	;
 J78             	269.56      	18.9        	R               	;
 J79             	265.48      	1.42        	R               	;
 J80             	265         	0.95        	R               	;
 J81             	275.27      	12.29       	R               	;
 J82             	271.96      	4.25        	R               	;
 J83             	266.38      	7.09        	R               	;
 J84             	267.71      	0.47        	R               	;
 J85             	268.52      	0.47        	R               	;
 J86             	266.15      	0.47        	R               	;
 J87             	264.02      	5.2         	R               	;
 J88             	262.18      	2.36        	R               	;
 J89             	260.86      	8.51        	R               	;
 J90             	261.98      	8.03        	R               	;
 J91             	260.53      	0.95        	R               	;
 J92             	259.15      	0.95        	R               	;
 J93             	263.36      	1.42        	R               	;
 J94             	258.39      	2.84        	R               	;
 J95             	265.08      	8.03        	R               	;
 J96             	260.91      	0.95        	R               	;
 J97             	262.24      	1.42        	R               	;
 J98             	265         	4.73        	R               	;
 J99             	263.65      	1.89        	R               	;
 J100            	263.97      	0.95        	R               	;
 J102            	262.69      	1.42        	R               	;
 J103            	260.99      	6.62        	R               	;
 J104            	255.12      	8.03        	R               	;
 J105            	253.83      	2.84        	R               	;
 J106            	255.62      	1.89        	R               	;
 J107            	250.12      	2.84        	R               	;
 J108            	263.34      	9.92        	R               	;
 J109            	261.56      	0.47        	R               	;
 J110            	259.74      	2.36        	R               	;
 J111            	255.12      	5.2         	R               	;
 J112            	256.22      	1.89        	R               	;
 J113            	255.65      	6.62        	R               	;
 J114            	252.32      	6.14        	R               	;
 J115            	248.88      	3.78        	R               	;
 J116            	251.9       	3.31        	R               	;
 J117            	250.75      	0.47        	R               	;
 J118            	250.97      	10.84       	F               	;
 J119            	245.32      	0.47        	R               	;
 J120            	246.55      	3.78        	R               	;
 J121            	247         	8.51        	R               	;
 J122            	245.84      	4.73        	R               	;
 J123            	258.65      	0.95        	R               	;
 J124            	263.63      	5.67        	R               	;
 J125            	260.49      	0.47        	R               	;
 J126            	264.74      	6.62        	R               	;
 J127            	255.6       	1.89        	R               	;
 J128            	259.59      	4.73        	R               	;
 J129            	256.09      	5.2         	R               	;
 J130            	279.01      	9.92        	R               	;
 J131            	273.93      	1.89        	R               	;
 J132            	281.57      	2.36        	R               	;
 J133            	283.37      	2.36        	R               	;
 J134            	282.01      	3.31        	R               	;
 J135            	281.78      	0.95        	R               	;
 J136            	281.05      	2.36        	R               	;
 J137            	272.28      	0.47        	R               	;
 J138            	270.27      	0.47        	R               	;
 J139            	264.53      	4.73        	R               	;
 J140            	265.03      	0.95        	R               	;
 J141            	260.52      	0.95        	R               	;
 J142            	249.86      	3.31        	R               	;
 J143            	252.78      	3.78        	R               	;
 J144            	256.76      	7.09        	R               	;
 J145            	260         	3.31        	R               	;
 J146            	255.01      	3.31        	R               	;
 J147            	250.47      	6.62        	R               	;
 J148            	258.59      	2.84        	R               	;
 J149            	259.54      	9.92        	R               	;
 J150            	262.95      	9.45        	R               	;
 J151            	253.28      	1.89        	R               	;
 J153            	257.33      	2.84        	R               	;
 J154            	255.69      	3.31        	R               	;
 J155            	257.58      	0.95        	R               	;
 J156            	251.8       	11.81       	R               	;
 J157            	250.38      	2.84        	R               	;
 J158            	250.36      	0.47        	R               	;
 J159            	249.61      	2.84        	R               	;
 J160            	244.99      	6.14        	R               	;
 J161            	247.84      	8.03        	R               	;
 J162            	250.85      	14.18       	R               	;
 J163            	253         	3.31        	R               	;
 J164            	255.15      	2.84        	R               	;
 J165            	260.34      	4.73        	R               	;
 J166            	254.96      	5.2         	R               	;
 J167            	251.84      	6.14        	R               	;
 J168            	268.98      	7.56        	R               	;
 J169            	258.25      	6.62        	R               	;
 J170            	258.71      	2.84        	R               	;
 J171            	256.99      	4.73        	R               	;
 J172            	248.24      	4.25        	R               	;
 J173            	248.01      	2.84        	R               	;
 J175            	274.15      	3.31        	R               	;
 J176            	268.5       	3.78        	R               	;
 J177            	270.83      	0.47        	R               	;
 J179            	252.46      	2.84        	R               	;
 J180            	249.23      	2.84        	R               	;
 J181            	252.82      	2.36        	R               	;
 J182            	248.95      	2.36        	R               	;
 J183            	247.35      	0.95        	R               	;
 J184            	255.15      	5.2         	R               	;
 J185            	248.61      	1.42        	R               	;
 J186            	248.02      	2.36        	R               	;
 J187            	248.48      	5.2         	R               	;
 J188            	249.39      	0.47        	R               	;
 J189            	252.06      	3.31        	R               	;
 J190            	252.28      	1.42        	R               	;
 J191            	257.3       	3.78        	R               	;
 J192            	254.72      	2.36        	R               	;
 J193            	263.34      	3.31        	R               	;
 J194            	254.58      	1.89        	R               	;
 J195            	255         	1.42        	R               	;
 J196            	252.29      	5.67        	R               	;
 J197            	248.26      	3.31        	R               	;
 J198            	245.49      	1.42        	R               	;
 J199            	250.21      	1.89        	R               	;
 J200            	255.18      	1.42        	R               	;
 J202            	248.2       	1.89        	R               	;
 J203            	266.94      	0           	R               	;
 J204            	253.81      	0.47        	R               	;
 J205            	254.06      	5.2         	R               	;
 J206            	253.26      	3.31        	R               	;
 J207            	248.95      	4.25        	R               	;
 J208            	282.07      	2.84        	R               	;
 J209            	257.24      	2.36        	R               	;
 J210            	251.59      	1.89        	R               	;
 J211            	253.77      	1.89        	R               	;
 J212            	271.06      	1.89        	R               	;
 J213            	255         	0.47        	R               	;
 J214            	255         	2.84        	R               	;
 J216            	260.69      	3.31        	R               	;
 J218            	255.13      	1.42        	R               	;
 J219            	247.66      	6.05        	LF              	;
 J220            	270.91      	6.62        	R               	;
 J223            	250.01      	0.95        	R               	;
 J224            	255         	1.89        	R               	;
 J225            	249.59      	2.36        	R               	;
 J226            	248         	1.42        	R               	;
 J227            	248.82      	7.09        	R               	;
 J228            	255.91      	0.47        	R               	;
 J229            	257.08      	1.89        	R               	;
 J230            	279.57      	0.47        	R               	;
 J231            	263.92      	3.78        	R               	;
 J232            	253.47      	2.36        	R               	;
 J233            	266.75      	0.47        	R               	;
 J235            	269.48      	2.84        	R               	;
 J236            	277.52      	6.62        	R               	;
 J239            	249.4       	1.89        	R               	;
 J240            	248.98      	2.36        	R               	;
 J241            	254.98      	2.36        	R               	;
 J242            	251.83      	2.36        	R               	;
 J243            	250.76      	2.84        	R               	;
 J244            	284.99      	0.47        	R               	;
 J245            	290.26      	0           	R               	;
 J246            	269.94      	0           	R               	;
 J247            	247.39      	1.89        	R               	;
 J248            	245.2       	0.47        	R               	;
 J249            	259.98      	0.47        	R               	;
 J250            	260.97      	0.47        	R               	;
 J251            	263.18      	0.95        	R               	;
 J252            	267.73      	4.25        	R               	;
 J253            	260.72      	0.47        	R               	;
 J254            	245.64      	0.95        	R               	;
 J256            	273.67      	5.67        	R               	;
 J257            	259.73      	0           	R               	;
 J258            	259.73      	0.95        	R               	;
 J259            	286.19      	0           	R               	;
 J260            	286.35      	0           	R               	;
 J261            	287.08      	0           	R               	;
 J262            	286.18      	0           	F               	;
 J263            	290.06      	0           	R               	;
 J264            	294.11      	0           	R               	;
 J265            	293.33      	0           	R               	;
 J267            	291.78      	1.42        	R               	;
 J269            	249.96      	0.47        	R               	;
 J273            	274.13      	4.73        	R               	;
 J274            	247.27      	0.47        	R               	;
 J275            	246.01      	0.47        	R               	;
 J276            	250.01      	0.47        	R               	;
 J277            	259.98      	2.84        	R               	;
 J278            	253.98      	2.84        	R               	;
 J279            	277.72      	12.76       	R               	;
 J280            	274.83      	3.31        	R               	;
 J281            	274.99      	50.85       	SH              	;
 J282            	271.75      	1.89        	R               	;
 J283            	270.37      	75.38       	HOS             	;
 J284            	285.05      	0.47        	R               	;
 J285            	283.52      	2.84        	R               	;
 J286            	284.76      	0.1         	F               	;
 J287            	251.76      	2.1         	HOT             	;
 J288            	254.12      	8.92        	B               	;
 J289            	247.37      	3.78        	R               	;
 J290            	248.62      	0.21        	F               	;
 J291            	248.76      	7.55        	B               	;
 J292            	251.27      	6.62        	R               	;
 J293            	246.63      	0.09        	VT              	;
 J294            	248.07      	33.1        	F               	;
 J295            	248.31      	0.12        	F               	;
 J296            	247.46      	1.97        	F               	;
 J297            	248.55      	1           	F               	;
 J298            	246.32      	14.68       	CS              	;
 J299            	246.1       	5.96        	VT              	;
 J300            	283.56      	5.16        	HAM             	;
 J301            	280.87      	2.24        	KFC             	;
 J302            	275.01      	2.83        	S               	;
 J303            	267.91      	36.57       	S               	;
 J304            	250.93      	4.8         	S               	;
 J305            	260.08      	8.98        	R               	;
 J306            	265.49      	0.17        	F               	;
 J307            	265         	19.39       	F               	;
 J308            	268.68      	2.66        	KFC             	;
 J309            	266.44      	1           	F               	;
 J310            	269.45      	0.45        	F               	;
 J311            	257.35      	1.92        	S               	;
 J312            	247.55      	7.54        	TH              	;
 J313            	247.63      	7.2         	IP              	;
 J314            	249.6       	3.98        	CC              	;
 J315            	249.04      	5.44        	F               	;
 J316            	248.97      	14.78       	BA              	;
 J317            	249.5       	2.29        	G               	;
 J318            	268.95      	19.22       	SH              	;
 J319            	249.18      	4.43        	F               	;
 J320            	248.97      	21.25       	F               	;
 J321            	281.98      	27.5        	LS              	;
 J322            	275.53      	13.26       	F               	;
 J323            	245.64      	3.08        	F               	;
 J324            	271.35      	0           	F               	;
 J326            	265.33      	4.2525      	R               	;
 J327            	287.49      	0           	                	;
 J539            	287.08      	0           	                	;
 J544            	290.06      	0           	                	;
 J546            	293.33      	0           	                	;
 JPMP51          	287.08      	0           	                	;
 JPMP63          	293.33      	0           	                	;
 JPMP72          	290.06      	0           	                	;

[RESERVOIRS]
;ID              	Head        	Pattern         
 R5              	284.26      	                	;
 R6              	280         	                	;
 R7              	286.66      	                	;

[TANKS]
;ID              	Elevation   	InitLevel   	MinLevel    	MaxLevel    	Diameter    	MinVol      	VolCurve
 T1              	287.49      	26          	21.31       	26.22       	8.5         	0           	                	;
 T2              	294.64      	20          	15.36       	20.22       	14.6        	0           	                	;

[PIPES]
;ID              	Node1           	Node2           	Length      	Diameter    	Roughness   	MinorLoss   	Status
 P2              	J2              	J3              	120         	250         	70          	0           	Open  	;
 P3              	J4              	J5              	110         	250         	70          	0           	Open  	;
 P4              	J1              	J6              	205         	250         	70          	0           	Open  	;
 P5              	J1              	J7              	380         	250         	80          	0           	Open  	;
 P7              	J6              	J10             	140         	250         	70          	0           	Open  	;
 P8              	J10             	J11             	215         	250         	70          	0           	Open  	;
 P9              	J11             	J12             	360         	250         	70          	0           	Open  	;
 P10             	J13             	J14             	95          	250         	70          	0           	Open  	;
 P11             	J14             	J15             	100         	250         	70          	0           	Open  	;
 P12             	J15             	J16             	125         	250         	70          	0           	Open  	;
 P13             	J16             	J17             	100         	250         	80          	0           	Open  	;
 P14             	J17             	J18             	180         	250         	70          	0           	Open  	;
 P16             	J20             	J21             	120         	250         	70          	0           	Open  	;
 P17             	J21             	J22             	155         	250         	70          	0           	Open  	;
 P18             	J267            	T1              	90          	250         	70          	0           	Open  	;
 P19             	T1              	J24             	260         	250         	70          	0           	Open  	;
 P20             	J25             	J26             	120         	250         	70          	0           	Open  	;
 P21             	J26             	J27             	170         	250         	70          	0           	Open  	;
 P22             	J26             	J28             	120         	250         	70          	0           	Open  	;
 P23             	J28             	J29             	105         	250         	70          	0           	Open  	;
 P24             	J29             	J30             	105         	250         	70          	0           	Open  	;
 P25             	J30             	J31             	160         	250         	70          	0           	Open  	;
 P26             	J31             	J32             	105         	250         	70          	0           	Open  	;
 P27             	J32             	J33             	125         	250         	70          	0           	Open  	;
 P34             	J41             	J42             	120         	300         	70          	0           	Open  	;
 P35             	J42             	J43             	120         	300         	70          	0           	Open  	;
 P37             	J43             	J45             	145         	300         	70          	0           	Open  	;
 P38             	J44             	J46             	100         	300         	70          	0           	Open  	;
 P39             	J46             	J47             	120         	300         	70          	0           	Open  	;
 P40             	J47             	J48             	120         	300         	70          	0           	Open  	;
 P41             	J33             	J49             	310         	300         	70          	0           	Open  	;
 P42             	J49             	J50             	210         	150         	80          	0           	Open  	;
 P43             	J233            	J137            	240         	300         	70          	0           	Open  	;
 P44             	J12             	J13             	65          	250         	70          	0           	Open  	;
 P45             	J52             	J53             	245         	300         	70          	0           	Open  	;
 P46             	J45             	J54             	170         	300         	70          	0           	Open  	;
 P47             	J54             	T2              	410         	300         	70          	0           	Open  	;
 P48             	T2              	J56             	260         	300         	80          	0           	Open  	;
 P49             	J56             	J57             	90          	300         	140         	0           	Open  	;
 P50             	J57             	J58             	130         	300         	70          	0           	Open  	;
 P51             	J58             	J59             	65          	300         	140         	0           	Open  	;
 P52             	J58             	J60             	190         	300         	140         	0           	Open  	;
 P53             	J60             	J61             	210         	300         	140         	0           	Open  	;
 P54             	J45             	J62             	50          	200         	70          	0           	Open  	;
 P55             	J62             	J63             	125         	200         	70          	0           	Open  	;
 P56             	J63             	J64             	115         	200         	70          	0           	Open  	;
 P57             	J52             	J65             	80          	200         	107         	0           	Open  	;
 P59             	J52             	J68             	125         	150         	70          	0           	Open  	;
 P60             	J65             	J69             	55          	150         	107         	0           	Open  	;
 P61             	J50             	J70             	265         	150         	80          	0           	Open  	;
 P62             	J70             	J71             	85          	150         	80          	0           	Open  	;
 P63             	J71             	J72             	160         	150         	95          	0           	Open  	;
 P64             	J72             	J73             	140         	150         	95          	0           	Open  	;
 P65             	J73             	J277            	165         	150         	95          	0           	Open  	;
 P67             	J75             	J76             	100         	150         	107         	0           	Open  	;
 P68             	J76             	J77             	100         	150         	107         	0           	Open  	;
 P75             	J82             	J83             	90          	150         	70          	0           	Open  	;
 P76             	J83             	J84             	110         	150         	95          	0           	Open  	;
 P77             	J82             	J85             	125         	150         	70          	0           	Open  	;
 P78             	J83             	J86             	100         	150         	70          	0           	Open  	;
 P79             	J79             	J87             	130         	150         	70          	0           	Open  	;
 P80             	J87             	J88             	70          	150         	140         	0           	Open  	;
 P82             	J89             	J14             	195         	150         	70          	0           	Open  	;
 P83             	J13             	J326            	195         	150         	150         	0           	Open  	;
 P84             	J89             	J90             	95          	150         	150         	0           	Open  	;
 P85             	J91             	J92             	125         	150         	150         	0           	Open  	;
 P86             	J92             	J93             	70          	150         	150         	0           	Open  	;
 P87             	J92             	J94             	70          	150         	150         	0           	Open  	;
 P89             	J14             	J87             	100         	150         	70          	0           	Open  	;
 P90             	J12             	J95             	155         	150         	70          	0           	Open  	;
 P91             	J18             	J96             	100         	150         	70          	0           	Open  	;
 P92             	J16             	J96             	175         	150         	80          	0           	Open  	;
 P93             	J96             	J97             	70          	150         	80          	0           	Open  	;
 P94             	J97             	J98             	180         	150         	80          	0           	Open  	;
 P95             	J67             	J99             	145         	150         	70          	0           	Open  	;
 P96             	J99             	J100            	65          	150         	80          	0           	Open  	;
 P97             	J100            	J97             	60          	150         	80          	0           	Open  	;
 P98             	J99             	J102            	65          	150         	70          	0           	Open  	;
 P99             	J102            	J103            	140         	150         	70          	0           	Open  	;
 P100            	J103            	J104            	245         	150         	70          	0           	Open  	;
 P101            	J104            	J105            	125         	150         	70          	0           	Open  	;
 P102            	J105            	J106            	115         	150         	80          	0           	Open  	;
 P103            	J105            	J48             	120         	150         	70          	0           	Open  	;
 P104            	J48             	J107            	110         	150         	107         	0           	Open  	;
 P105            	J108            	J109            	80          	150         	70          	0           	Open  	;